2018/xuanzhang/backup_of_SC_EMS (CA up to call sub-query sequantial )/SC_EMS/input/sc_20171207_11100edgeinfo_new.csv
tap_bus,z_bus,area,zone,circuit,type,R,X,B,Line_Q1,Line_Q2,Line_Q3,control_bus,side,transformer_final_turns_ratio,transformer_final_angle,Min_tap,Max_tap,step_size,Min_volt,Max_volt,M_P_TLPF,M_Q_TLPF,M_P_TLPF_reverse,M_Q_TLPF_reverse,Ri_eP,Ri_eQ,Ri_eP_reverse,Ri_eQ_reverse,CritiLine
1,2,1,1,1,0,0.000055,0.001198,0.078281,12.353186,29.06632,36.3329,0,0,0,0,0,0,0,0,0,-14.592751,0.32251,14.60447,-0.22549,1,1,1,1,1
1,2,1,1,1,0,0.000065,0.001219,0.151109,12.353186,29.06632,36.3329,0,0,0,0,0,0,0,0,0,-14.334721,0.34516,14.34803,-0.39901,1,1,1,1,1
1,108,1,1,1,0,0.000434,0.00627,0.358346,5.872035,7.82938,9.786725,0,0,0,0,0,0,0,0,0,4.10633,-0.11696,-4.09901,-0.4949,1,1,1,1,0
1,148,1,1,1,0,0.000887,0.012727,0.721233,2.953665,3.93822,4.922775,0,0,0,0,0,0,0,0,0,-1.55902,-0.42081,1.56124,1.30057,1,1,1,1,0
1,148,1,1,1,0,0.00086,0.012727,0.711021,2.953665,3.93822,4.922775,0,0,0,0,0,0,0,0,0,-1.5599,-0.41388,1.56206,1.31411,1,1,1,1,0
1,24,1,1,1,0,0.001691,0.020206,1.191482,3.504765,4.67302,5.841275,0,0,0,0,0,0,0,0,0,2.03683,-1.0369,-2.0298,1.59843,1,1,1,1,0
1,108,1,1,1,0,0.000409,0.006475,0.381582,5.872035,7.82938,9.786725,0,0,0,0,0,0,0,0,0,3.97659,-0.12375,-3.97011,-0.53788,1,1,1,1,0
1,24,1,1,1,0,0.00152,0.019908,1.137506,3.504765,4.67302,5.841275,0,0,0,0,0,0,0,0,0,2.06724,-0.96513,-2.06072,1.63579,1,1,1,1,0
1,366,1,1,1,0,0.000289,0.004878,0.274611,5.48082,7.30776,9.1347,0,0,0,0,0,0,0,0,0,3.68581,0.34779,-3.68178,-0.82923,1,1,1,1,0
1,366,1,1,1,0,0.000289,0.004871,0.273832,5.48082,7.30776,9.1347,0,0,0,0,0,0,0,0,0,3.69073,0.34959,-3.6867,-0.82938,1,1,1,1,0
1,899,1,1,1,1,0.000079,0.018333,0,5.74575,7.661,9.57625,0,0,1,0,0,0,0,0,0,3.72341,1.44465,0,0,1,1,1,1,0
1,901,1,1,1,1,0.000113,0.017933,0,5.88288,7.84384,9.8048,0,0,1,0,0,0,0,0,0,3.81889,1.47915,0,0,1,1,1,1,0
2,3,1,1,1,0,0.000544,0.008073,0.523577,25.16142,33.54856,41.9357,0,0,0,0,0,0,0,0,0,-14.40196,8.23287,14.555811,-6.94706,1,1,1,1,0
2,6,1,1,1,0,0.000544,0.008073,0.523577,14.302287,33.65244,42.06555,0,0,0,0,0,0,0,0,0,-14.43794,8.27474,14.59276,-6.97441,1,1,1,1,1
4,5,1,1,1,0,0.000738,0.009575,0.582413,5.596005,7.46134,9.326675,0,0,0,0,0,0,0,0,0,-2.93456,1.29356,2.94092,-0.65726,1,1,1,1,0
4,5,1,1,1,0,0.000731,0.009318,0.596693,5.596005,7.46134,9.326675,0,0,0,0,0,0,0,0,0,-3.01469,1.28762,3.02134,-0.67767,1,1,1,1,0
4,5,1,1,1,0,0.000759,0.009541,0.578865,5.596005,7.46134,9.326675,0,0,0,0,0,0,0,0,0,-2.94409,1.3048,2.95068,-0.66112,1,1,1,1,0
4,15,1,1,1,0,0.000531,0.007651,0.421177,6.84252,9.12336,11.4042,0,0,0,0,0,0,0,0,0,4.45223,-0.80094,-4.44164,0.10958,1,1,1,1,0
4,15,1,1,1,0,0.000552,0.007645,0.427062,6.84252,9.12336,11.4042,0,0,0,0,0,0,0,0,0,4.4541,-0.81924,-4.44308,0.11617,1,1,1,1,0
4,884,1,1,1,1,0.000089,0.01838,0,4.532145,6.04286,7.553575,0,0,1,0,0,0,0,0,0,2.40969,0.39521,0,0,1,1,1,1,0
4,886,1,1,1,1,0.000087,0.018247,0,4.55616,6.07488,7.5936,0,0,1,0,0,0,0,0,0,2.41916,0.3321,0,0,1,1,1,1,0
7,8,1,1,1,0,0.000301,0.003585,0.184517,10.344015,13.79202,17.240025,0,0,0,0,0,0,0,0,0,4.5523,-0.69314,-4.54617,0.38552,1,1,1,1,0
7,8,1,1,1,0,0.00004,0.003585,0.183737,10.344015,13.79202,17.240025,0,0,0,0,0,0,0,0,0,4.59264,-0.36104,-4.59182,0.05553,1,1,1,1,0
7,648,1,1,1,1,0.000283,0.022226,0,8.695695,11.59426,14.492825,0,0,1.047619,0,0,0,0,0,0,-4.51693,0.54341,4.52316,-0.05357,1,1,1,1,0
7,649,1,1,1,1,0.000283,0.022226,0,4.709295,6.27906,7.848825,0,0,1.047619,0,0,0,0,0,0,-0.22052,0.0403,0.22053,-0.03911,1,1,1,1,0
7,650,1,1,1,1,0.000283,0.022226,0,8.497665,11.33022,14.162775,0,0,1.047619,0,0,0,0,0,0,-4.40778,0.47171,4.4137,-0.00664,1,1,1,1,0
8,89,1,1,1,0,0.000403,0.009598,0.565839,6.6831,8.9108,11.1385,0,0,0,0,0,0,0,0,0,1.0863,-0.03973,-1.08572,0.62906,1,1,1,1,0
8,89,1,1,1,0,0.000409,0.009578,0.568479,6.6831,8.9108,11.1385,0,0,0,0,0,0,0,0,0,1.08889,-0.04211,-1.0883,0.62605,1,1,1,1,0
8,376,1,1,1,0,0.000106,0.001268,21.76928571,14.651722,34.47464,43.0933,0,0,0,0,0,0,0,0,0,4.90615,-1.84112,-4.90336,1.71912,1,1,1,1,1
8,376,1,1,1,0,0.000077,0.001272,21.76928571,14.651722,34.47464,43.0933,0,0,0,0,0,0,0,0,0,4.93775,-1.7267,-4.93573,1.60359,1,1,1,1,1
8,329,1,1,1,0,0.001441,0.027405,1.582888,5.155545,6.87406,8.592575,0,0,0,0,0,0,0,0,0,4.34969,0.74127,-4.32311,1.05879,1,1,1,1,0
8,329,1,1,1,0,0.001517,0.027405,1.571117,5.155545,6.87406,8.592575,0,0,0,0,0,0,0,0,0,4.34996,0.7412,-4.32197,1.08279,1,1,1,1,0
8,950,1,1,1,1,0.000132,0.017733,0,5.536395,7.38186,9.227325,0,0,1.047619,0,0,0,0,0,0,-1.00222,0.87321,0,0,1,1,1,1,0
8,952,1,1,1,1,0.000132,0.017933,0,5.445,7.26,9.075,0,0,1.047619,0,0,0,0,0,0,-0.98131,0.93423,0,0,1,1,1,1,0
9,5,1,1,1,0,0.00022,0.003583,0.214905,11.65953,15.54604,19.43255,0,0,0,0,0,0,0,0,0,6.69229,-0.55405,-6.68244,0.2834,1,1,1,1,0
9,5,1,1,1,0,0.00022,0.003583,0.214905,11.65953,15.54604,19.43255,0,0,0,0,0,0,0,0,0,6.69229,-0.55405,-6.68244,0.2834,1,1,1,1,0
9,653,1,1,1,1,0.000283,0.022821,0,6.625597,15.58964,19.48705,0,0,1.047619,0,0,0,0,0,0,-6.78939,0.44074,6.80373,0.71529,1,1,1,1,1
9,654,1,1,1,1,0.000283,0.022821,0,11.63136,15.50848,19.3856,0,0,1.047619,0,0,0,0,0,0,-6.59527,0.66761,6.60888,0.42981,1,1,1,1,0
10,5,1,1,1,0,0.00022,0.003583,0.214905,11.154345,14.87246,18.590575,0,0,0,0,0,0,0,0,0,6.36881,-0.43922,-6.35991,0.15298,1,1,1,1,0
10,5,1,1,1,0,0.00022,0.003583,0.214905,11.154345,14.87246,18.590575,0,0,0,0,0,0,0,0,0,6.36881,-0.43922,-6.35991,0.15298,1,1,1,1,0
10,655,1,1,1,1,0.000283,0.022821,0,10.89675,14.529,18.16125,0,0,1.047619,0,0,0,0,0,0,-6.22933,0.34243,6.24137,0.62887,1,1,1,1,0
10,656,1,1,1,1,0.000283,0.022821,0,6.466664,15.21568,19.0196,0,0,1.047619,0,0,0,0,0,0,-6.50834,0.53676,6.52154,0.52749,1,1,1,1,1
11,5,1,1,1,0,0.00006,0.001267,0.089923,8.38347,11.17796,13.97245,0,0,0,0,0,0,0,0,0,2.87296,-1.39803,-2.87237,1.23055,1,1,1,1,0
11,5,1,1,1,0,0.000059,0.001266,0.092301,8.38347,11.17796,13.97245,0,0,0,0,0,0,0,0,0,2.8755,-1.4012,-2.87491,1.22897,1,1,1,1,0
11,240,1,1,1,0,0.000232,0.003765,0.237959,7.609125,10.1455,12.681875,0,0,0,0,0,0,0,0,0,-1.40532,-0.78576,1.40585,0.31728,1,1,1,1,0
11,240,1,1,1,0,0.000236,0.003788,0.234064,7.609125,10.1455,12.681875,0,0,0,0,0,0,0,0,0,-1.39691,-0.77741,1.39744,0.31668,1,1,1,1,0
11,2242,1,1,1,1,0.0001,0.001,0,10.7575405,25.31186,31.639825,0,0,1,0,0,0,0,0,0,-0.00215,11.78426,0.01604,-10.395539,1,1,1,1,1
11,2243,1,1,1,1,0.0001,0.001,0,18.81663,25.08884,31.36105,0,0,1,0,0,0,0,0,0,0.00128,-13.16188,0.01605,14.89427,1,1,1,1,0
12,11,1,1,1,0,0.00048,0.009556,0.561815,14.7817635,34.78062,43.475775,0,0,0,0,0,0,0,0,0,15.77505,-0.31044,-15.655291,1.57415,1,1,1,1,1
12,11,1,1,1,0,0.000412,0.009012,0.568609,14.7817635,34.78062,43.475775,0,0,0,0,0,0,0,0,0,16.729959,-0.22727,-16.61426,1.62258,1,1,1,1,1
12,11,1,1,1,0,0.00041,0.009021,0.570427,14.7817635,34.78062,43.475775,0,0,0,0,0,0,0,0,0,16.71258,-0.22495,-16.59767,1.61404,1,1,1,1,1
12,661,1,1,1,1,0.000279,0.02242,0,9.89244,13.18992,16.4874,0,0,1.047619,0,0,0,0,0,0,-6.19,0.20336,6.2018,0.74328,1,1,1,1,0
12,662,1,1,1,1,0.000279,0.02242,0,9.605535,12.80738,16.009225,0,0,1.047619,0,0,0,0,0,0,-5.99481,0.17803,6.00587,0.70967,1,1,1,1,0
12,663,1,1,1,1,0.000279,0.02242,0,9.56283,12.75044,15.93805,0,0,1.047619,0,0,0,0,0,0,-6.05273,-0.06002,6.064,0.96426,1,1,1,1,0
12,664,1,1,1,1,0.000279,0.02242,0,9.714645,12.95286,16.191075,0,0,1.047619,0,0,0,0,0,0,-6.09882,0.11005,6.11026,0.80821,1,1,1,1,0
12,665,1,1,1,1,0.000279,0.02242,0,10.033995,13.37866,16.723325,0,0,1.047619,0,0,0,0,0,0,-6.31984,0.12572,6.33213,0.86038,1,1,1,1,0
12,666,1,1,1,1,0.000279,0.02242,0,9.788685,13.05158,16.314475,0,0,1.047619,0,0,0,0,0,0,-6.18808,0.00887,6.19985,0.93617,1,1,1,1,0
12,667,1,1,1,1,0.000279,0.02242,0,9.945855,13.26114,16.576425,0,0,1.047619,0,0,0,0,0,0,-6.27285,0.08306,6.28495,0.88822,1,1,1,1,0
12,668,1,1,1,1,0.000279,0.02242,0,9.71865,12.9582,16.19775,0,0,1.047619,0,0,0,0,0,0,-6.10003,0.11443,6.11147,0.80422,1,1,1,1,0
13,14,1,1,1,0,0.000765,0.011613,0.903526,5.447985,7.26398,9.079975,0,0,0,0,0,0,0,0,0,-4.44262,-0.40697,4.45797,1.98599,1,1,1,1,0
13,14,1,1,1,0,0.001077,0.011727,0.905707,5.447985,7.26398,9.079975,0,0,0,0,0,0,0,0,0,-4.37636,-0.30182,4.39747,1.84732,1,1,1,1,0
13,47,1,1,1,0,0.000024,0.000298,0.019032,1.5,2,2.5,0,0,0,0,0,0,0,0,0,-0.92687,0.14587,0.92689,-0.1835,1,1,1,1,0
13,47,1,1,1,0,0.000028,0.000334,0.02194,1.5,2,2.5,0,0,0,0,0,0,0,0,0,-0.82519,0.12853,0.82521,-0.17198,1,1,1,1,0
13,191,1,1,1,0,0.000641,0.008128,0.49089,1.5,2,2.5,0,0,0,0,0,0,0,0,0,0.28447,0.14015,-0.28416,-1.10842,1,1,1,1,0
13,191,1,1,1,0,0.000571,0.007928,0.47224,1.5,2,2.5,0,0,0,0,0,0,0,0,0,0.28739,0.17691,-0.2871,-1.10814,1,1,1,1,0
13,878,1,1,1,1,0.000087,0.019007,0,4.614645,6.15286,7.691075,0,0,1,0,0,0,0,0,0,3.11312,0.32783,0,0,1,1,1,1,0
13,880,1,1,1,1,0.000091,0.017934,0,4.861965,6.48262,8.103275,0,0,1,0,0,0,0,0,0,3.28354,0.43078,0,0,1,1,1,1,0
15,16,1,1,1,0,0.000911,0.011365,0.64438,6.53544,8.71392,10.8924,0,0,0,0,0,0,0,0,0,8.6648,0.21636,-8.595901,-0.63351,1,1,1,1,0
15,16,1,1,1,0,0.000883,0.011163,0.664069,6.53544,8.71392,10.8924,0,0,0,0,0,0,0,0,0,8.8215,0.22214,-8.75232,-0.66258,1,1,1,1,0
15,266,1,1,1,0,0.001171,0.015936,0.962697,8.31663,11.08884,13.86105,0,0,0,0,0,0,0,0,0,3.5421,-0.77777,-3.52741,1.9128,1,1,1,1,0
15,423,1,1,1,0,0.000307,0.004099,0.251806,2.008725,2.6783,3.347875,0,0,0,0,0,0,0,0,0,-0.51226,-0.43372,0.51235,-0.07069,1,1,1,1,0
15,423,1,1,1,0,0.000303,0.004095,0.257172,2.008725,2.6783,3.347875,0,0,0,0,0,0,0,0,0,-0.51262,-0.43977,0.51271,-0.07541,1,1,1,1,0
15,911,1,1,1,1,0.000089,0.018327,0,2.85369,3.80492,4.75615,0,0,1,0,0,0,0,0,0,1.58766,-0.3606,0,0,1,1,1,1,0
15,913,1,1,1,1,0.000095,0.01758,0,2.99379,3.99172,4.98965,0,0,1,0,0,0,0,0,0,1.64184,-0.30766,0,0,1,1,1,1,0
17,18,1,1,1,0,0.001844,0.010714,0.009685,1.5,2,2.5,0,0,0,0,0,0,0,0,0,0.68277,-0.08257,-0.6819,0.06813,1,1,1,1,0
17,424,1,1,1,0,0.002908,0.016151,0.016619,1.5,2,2.5,0,0,0,0,0,0,0,0,0,-0.23704,-0.01099,0.2372,-0.02154,1,1,1,1,0
17,424,1,1,1,0,0.002847,0.016171,0.016735,1.5,2,2.5,0,0,0,0,0,0,0,0,0,-0.23693,-0.01204,0.23709,-0.02073,1,1,1,1,0
17,489,1,1,1,0,0.001528,0.007624,0.009177,1.5,2,2.5,0,0,0,0,0,0,0,0,0,-0.11299,0.07717,0.11302,-0.09547,1,1,1,1,0
17,489,1,1,1,0,0.00146,0.007515,0.008978,1.5,2,2.5,0,0,0,0,0,0,0,0,0,-0.11527,0.07805,0.1153,-0.09594,1,1,1,1,0
17,820,1,1,1,1,0.000983,0.141021,0,1.5,2,2.5,0,0,1.056957,0,0,0,0,0,0,0.01949,-0.04963,0,0,1,1,1,1,0
18,103,1,1,1,0,0.001837,0.0108,0.01004,1.5,2,2.5,0,0,0,0,0,0,0,0,0,0.37029,-0.1101,-0.37002,0.09151,1,1,1,1,0
18,103,1,1,1,0,0.001819,0.010698,0.009589,1.5,2,2.5,0,0,0,0,0,0,0,0,0,0.37384,-0.11057,-0.37357,0.09289,1,1,1,1,0
18,1343,1,1,1,1,0.001493,0.095671,0,1.5,2,2.5,0,0,1.0375,0,0,0,0,0,0,0.5848,0.07743,0,0,1,1,1,1,0
18,1688,1,1,1,1,0.001248,0.09586,0,1.5,2,2.5,0,0,1.040217,0,0,0,0,0,0,0.57222,0.02941,0,0,1,1,1,1,0
19,20,1,1,1,0,0.000689,0.007231,0.006951,1.659255,2.21234,2.765425,0,0,0,0,0,0,0,0,0,-1.09423,-0.09131,1.09506,0.08607,1,1,1,1,0
19,1385,1,1,1,1,0.00066,0.055694,0,1.5,2,2.5,0,0,0.956522,0,0,0,0,0,0,0.39806,0.04847,0,0,1,1,1,1,0
19,1388,1,1,1,1,0.00066,0.055694,0,1.5,2,2.5,0,0,0.956522,0,0,0,0,0,0,0.39806,0.04847,0,0,1,1,1,1,0
19,1391,1,1,1,1,0.00066,0.055694,0,1.5,2,2.5,0,0,0.956522,0,0,0,0,0,0,0.39806,0.04847,0,0,1,1,1,1,0
19,1394,1,1,1,1,0.00066,0.055694,0,1.5,2,2.5,0,0,0.956522,0,0,0,0,0,0,0.39806,0.04847,0,0,1,1,1,1,0
19,1397,1,1,1,1,0.02725,0.685,0,1.5,2,2.5,0,0,0.956522,0,0,0,0,0,0,0.40014,0.0601,-0.39606,0.04239,1,1,1,1,0
20,25,1,1,1,0,0.0015,0.0091,0.014458,2.206365,2.94182,3.677275,0,0,0,0,0,0,0,0,0,-1.43994,0.13256,1.44307,-0.14263,1,1,1,1,0
20,1567,1,1,1,1,0.001796,0.123333,0,1.5,2,2.5,0,0,1.03,0,0,0,0,0,0,0.08848,0.03236,0,0,1,1,1,1,0
20,1570,1,1,1,1,0.00104,0.120542,0,1.5,2,2.5,0,0,1.03,0,0,0,0,0,0,0.09363,0.00923,0,0,1,1,1,1,0
21,22,1,1,1,0,0.002486,0.014977,0.013378,1.5,2,2.5,0,0,0,0,0,0,0,0,0,-0.89375,0.05707,0.89571,-0.07256,1,1,1,1,0
21,84,1,1,1,0,0.001129,0.007171,0.005946,1.5,2,2.5,0,0,0,0,0,0,0,0,0,-0.94038,0.01115,0.94136,-0.01706,1,1,1,1,0
21,90,1,1,1,0,0.010027,0.060658,0.089623,1.5,2,2.5,0,0,0,0,0,0,0,0,0,-0.23022,-0.15629,0.23078,-0.02413,1,1,1,1,0
21,273,1,1,1,0,0.006163,0.040091,0.043877,1.541205,2.05494,2.568675,0,0,0,0,0,0,0,0,0,0.93799,-0.11593,-0.93264,0.06149,1,1,1,1,0
21,273,1,1,1,0,0.003591,0.030321,0.043827,1.541205,2.05494,2.568675,0,0,0,0,0,0,0,0,0,1.2486,-0.09604,-1.2431,0.05335,1,1,1,1,0
21,338,1,1,1,0,0.002935,0.015745,0.016082,1.5,2,2.5,0,0,0,0,0,0,0,0,0,0.21206,0.27664,-0.21168,-0.30723,1,1,1,1,0
22,729,1,1,1,1,0.003007,0.14,0,1.5,2,2.5,0,0,1.052174,0,0,0,0,0,0,-0.41207,0.03629,0.41263,-0.01033,1,1,1,1,0
22,937,1,1,1,1,0.003633,0.194,0,1.5,2,2.5,0,0,1.052174,0,0,0,0,0,0,-0.48364,0.03628,0,0,1,1,1,1,0
23,24,1,1,1,0,0.000582,0.008027,0.491207,1.5,2,2.5,0,0,0,0,0,0,0,0,0,0.75568,0.68019,-0.75526,-0.09345,1,1,1,1,0
23,191,1,1,1,0,0.00026,0.00443,0.230343,1.5,2,2.5,0,0,0,0,0,0,0,0,0,-0.75579,0.06357,0.75596,-0.51486,1,1,1,1,0
24,13,1,1,1,0,0.000568,0.006488,0.426457,1.91181,2.54908,3.18635,0,0,0,0,0,0,0,0,0,-1.8066,-0.48425,1.80847,-0.34218,1,1,1,1,0
24,13,1,1,1,0,0.000482,0.006543,0.407503,1.91181,2.54908,3.18635,0,0,0,0,0,0,0,0,0,-1.79238,-0.48974,1.79394,-0.29913,1,1,1,1,0
24,266,1,1,1,0,0.000694,0.010051,0.583802,3.1644,4.2192,5.274,0,0,0,0,0,0,0,0,0,1.93363,-0.66859,-1.93101,-0.45201,1,1,1,1,0
24,891,1,1,1,1,0.000098,0.018073,0,5.01051,6.68068,8.35085,0,0,1,0,0,0,0,0,0,3.225,0.73529,0,0,1,1,1,1,0
24,893,1,1,1,1,0.000133,0.017927,0,5.131875,6.8425,8.553125,0,0,1,0,0,0,0,0,0,3.28615,0.76654,0,0,1,1,1,1,0
25,350,1,1,1,0,0.014918,0.088091,0.167618,1.5,2,2.5,0,0,0,0,0,0,0,0,0,0.73889,-0.20687,-0.73077,-0.08054,1,1,1,1,0
25,680,1,1,1,1,0.001138,0.055291,0,2.18025,2.907,3.63375,0,0,1.052174,0,0,0,0,0,0,-1.41049,0.22565,1.41304,-0.10148,1,1,1,1,0
25,681,1,1,1,1,0.00117,0.055665,0,2.275995,3.03466,3.793325,0,0,1.052174,0,0,0,0,0,0,-1.48667,0.17937,1.48956,-0.04198,1,1,1,1,0
25,682,1,1,1,1,0.001174,0.064125,0,2.27493,3.03324,3.79155,0,0,1.052174,0,0,0,0,0,0,-1.49364,0.15558,1.49655,0.00359,1,1,1,1,0
26,25,1,1,1,0,0.003236,0.017933,0.026147,1.68168,2.24224,2.8028,0,0,0,0,0,0,0,0,0,-1.10302,0.07261,1.10698,-0.10315,1,1,1,1,0
26,19,1,1,1,0,0.000121,0.001213,0.001545,1.5,2,2.5,0,0,0,0,0,0,0,0,0,0.89823,0.16057,-0.89813,-0.16266,1,1,1,1,0
26,335,1,1,1,0,0.003442,0.019028,0.040688,1.5,2,2.5,0,0,0,0,0,0,0,0,0,0.30187,-0.19423,-0.30147,0.11473,1,1,1,1,0
26,25,1,1,1,0,0.003378,0.017987,0.023594,1.68168,2.24224,2.8028,0,0,0,0,0,0,0,0,0,-1.09752,0.08253,1.10162,-0.10807,1,1,1,1,0
26,1159,1,1,1,1,0.001777,0.120541,0,1.5,2,2.5,0,0,1.03,0,0,0,0,0,0,0.5929,0.11182,0,0,1,1,1,1,0
26,1162,1,1,1,1,0.001811,0.119582,0,1.5,2,2.5,0,0,1.03,0,0,0,0,0,0,0.5884,0.10465,0,0,1,1,1,1,0
27,20,1,1,1,0,0.002429,0.015431,0.02063,1.5,2,2.5,0,0,0,0,0,0,0,0,0,-0.15651,0.12315,0.15662,-0.16396,1,1,1,1,0
27,350,1,1,1,0,0.011583,0.071461,0.127677,1.5,2,2.5,0,0,0,0,0,0,0,0,0,0.69487,-0.1341,-0.68932,-0.08734,1,1,1,1,0
27,639,1,1,1,0,0.004407,0.033662,0.058187,1.5,2,2.5,0,0,0,0,0,0,0,0,0,-0.00152,-0.12112,0.00154,0.00374,1,1,1,1,0
27,644,1,1,1,0,0.000835,0.006732,0.013288,1.5,2,2.5,0,0,0,0,0,0,0,0,0,-0.00142,-0.0287,0.00142,0.00191,1,1,1,1,0
27,1868,1,1,1,1,0.001384,0.096966,0,1.5,2,2.5,0,0,1.045,0,0,0,0,0,0,0.1426,0.01229,0,0,1,1,1,1,0
27,1871,1,1,1,1,0.001388,0.097467,0,1.5,2,2.5,0,0,1.0375,0,0,0,0,0,0,0.14224,0.01367,0,0,1,1,1,1,0
28,27,1,1,1,0,0.018376,0.079203,0.075271,1.5,2,2.5,0,0,0,0,0,0,0,0,0,-0.28973,-0.08013,0.29128,-0.06399,1,1,1,1,0
28,56,1,1,1,0,0.001396,0.011485,0.021487,1.5,2,2.5,0,0,0,0,0,0,0,0,0,0.77761,-0.06717,-0.77676,0.03141,1,1,1,1,0
28,529,1,1,1,0,0.002025,0.014611,0.026128,1.5,2,2.5,0,0,0,0,0,0,0,0,0,0.00069,-0.08925,-0.00068,0.03723,1,1,1,1,0
28,637,1,1,1,0,0.000501,0.017713,0.047506,1.5,2,2.5,0,0,0,0,0,0,0,0,0,0.00205,-0.24373,-0.00203,0.14949,1,1,1,1,0
28,1165,1,1,1,1,0.001698,0.122374,0,1.5,2,2.5,0,0,1.042609,0,0,0,0,0,0,0.47922,0.11313,0,0,1,1,1,1,0
28,2166,1,1,1,1,0.000888,0.08138,0,1.5,2,2.5,0,0,1.028261,0,0,0,0,0,0,0.75477,0.05779,0,0,1,1,1,1,0
29,30,1,1,1,0,0.002735,0.012637,0.009455,1.5,2,2.5,0,0,0,0,0,0,0,0,0,-0.47471,0.39052,0.47578,-0.40421,1,1,1,1,0
29,30,1,1,1,0,0.002174,0.01228,0.010813,1.5,2,2.5,0,0,0,0,0,0,0,0,0,-0.50755,0.38493,0.50846,-0.40107,1,1,1,1,0
29,30,1,1,1,0,0.001435,0.009735,0.012543,1.5,2,2.5,0,0,0,0,0,0,0,0,0,-0.65744,0.47015,0.65841,-0.4883,1,1,1,1,0
29,344,1,1,1,0,0.002514,0.015016,0.04,1.5,2,2.5,0,0,0,0,0,0,0,0,0,0.16784,-0.50727,-0.16722,0.43144,1,1,1,1,0
29,344,1,1,1,0,0.002859,0.012614,0.04,1.5,2,2.5,0,0,0,0,0,0,0,0,0,0.16587,-0.60046,-0.16488,0.52524,1,1,1,1,0
29,1373,1,1,1,1,0.002053,0.118333,0,1.5,2,2.5,0,0,1.042609,0,0,0,0,0,0,0.66338,-0.07809,0,0,1,1,1,1,0
29,1376,1,1,1,1,0.002626,0.119749,0,1.5,2,2.5,0,0,1.042609,0,0,0,0,0,0,0.64144,-0.04455,0,0,1,1,1,1,0
30,131,1,1,1,0,0.001533,0.008932,0.016435,1.2,1.5,2,0,0,0,0,0,0,0,0,0,1.34415,-0.40365,-1.34109,0.38919,1,1,1,1,0
30,146,1,1,1,0,0.006495,0.049202,0.084323,1.5,2,2.5,0,0,0,0,0,0,0,0,0,-0.6109,-0.2998,0.61369,0.15293,1,1,1,1,0
30,471,1,1,1,0,0.00836,0.046289,0.044284,1.5,2,2.5,0,0,0,0,0,0,0,0,0,0.46084,-0.29436,-0.45849,0.21978,1,1,1,1,0
30,831,1,1,1,1,0.00008,-0.001693,0,6.11433,8.15244,10.19055,0,0,1,0,0,0,0,0,0,-4.01592,0.98198,0,0,1,1,1,1,0
30,833,1,1,1,1,0.000066,-0.00172,0,6.291135,8.38818,10.485225,0,0,1,0,0,0,0,0,0,-4.05434,1.4971,0,0,1,1,1,1,0
31,32,1,1,1,0,0.003371,0.021122,0.032756,1.5,2,2.5,0,0,0,0,0,0,0,0,0,-0.76958,0.1748,0.77171,-0.22709,1,1,1,1,0
31,65,1,1,1,0,0.003701,0.020509,0.020904,1.5,2,2.5,0,0,0,0,0,0,0,0,0,-0.69938,-0.10375,0.7012,0.07173,1,1,1,1,0
31,142,1,1,1,0,0.005691,0.032224,0.036095,2.45478,3.27304,4.0913,0,0,0,0,0,0,0,0,0,-1.62862,0.15436,1.64386,-0.14086,1,1,1,1,0
31,143,1,1,1,0,0.005463,0.032346,0.035289,1.5,2,2.5,0,0,0,0,0,0,0,0,0,-0.20849,-0.09494,0.20875,0.02538,1,1,1,1,0
31,160,1,1,1,0,0.002364,0.023894,0.048071,2.693355,3.59114,4.488925,0,0,0,0,0,0,0,0,0,-1.79497,-0.04322,1.80256,0.02291,1,1,1,1,0
31,160,1,1,1,0,0.002358,0.023885,0.04636,2.693355,3.59114,4.488925,0,0,0,0,0,0,0,0,0,-1.79572,-0.04189,1.80329,0.02506,1,1,1,1,0
31,874,1,1,1,1,0.00008,-0.002463,0,3.092175,4.1229,5.153625,0,0,1.05,0,0,0,0,0,0,2.05586,-0.09752,0,0,1,1,1,1,0
31,876,1,1,1,1,0.000083,-0.002467,0,3.09321,4.12428,5.15535,0,0,1.05,0,0,0,0,0,0,2.05632,-0.0977,0,0,1,1,1,1,0
31,972,1,1,1,1,0.000062,-0.002233,0,3.03762,4.05016,5.0627,0,0,1.05,0,0,0,0,0,0,2.02114,-0.09498,0,0,1,1,1,1,0
32,679,1,1,1,1,0.005478,0.2,0,1.5,2,2.5,0,0,1.078478,0,0,0,0,0,0,-0.35816,0.18829,0.35921,-0.15023,1,1,1,1,0
32,861,1,1,1,1,0.005544,0.2759,0,1.5,2,2.5,0,0,1.104783,0,0,0,0,0,0,-0.08308,-0.0343,0,0,1,1,1,1,0
33,30,1,1,1,0,0.001321,0.009384,0.012474,1.998105,2.66414,3.330175,0,0,0,0,0,0,0,0,0,-1.31795,0.30527,1.32042,-0.31222,1,1,1,1,0
33,131,1,1,1,0,0.000038,0.000285,0.000546,1.684485,2.24598,2.807475,0,0,0,0,0,0,0,0,0,-0.81023,-1.0403,0.8103,1.03973,1,1,1,1,0
34,30,1,1,1,0,0.000979,0.00966,0.013727,1.628265,2.17102,2.713775,0,0,0,0,0,0,0,0,0,-1.05005,-0.28545,1.05123,0.2703,1,1,1,1,0
34,30,1,1,1,0,0.001301,0.00966,0.012285,1.628265,2.17102,2.713775,0,0,0,0,0,0,0,0,0,-1.05432,-0.24854,1.05588,0.23612,1,1,1,1,0
35,36,1,1,1,0,0.001396,0.020366,1.115229,9.344775,12.4597,15.574625,0,0,0,0,0,0,0,0,0,-6.16674,1.36535,6.21997,0.62146,1,1,1,1,0
35,89,1,1,1,0,0.0001,0.001,0.001,9.34482,12.45976,15.5747,0,0,0,0,0,0,0,0,0,0,0,0,0,1,1,1,1,0
36,386,1,1,1,0,0.00031,0.004393,0.263317,7.843455,10.45794,13.072425,0,0,0,0,0,0,0,0,0,5.60673,-1.08277,-5.59692,0.68627,1,1,1,1,0
36,386,1,1,1,0,0.000419,0.005851,0.352589,7.843455,10.45794,13.072425,0,0,0,0,0,0,0,0,0,4.20927,-0.97453,-4.20179,0.36184,1,1,1,1,0
36,685,1,1,1,1,0.000301,0.023528,0,8.35413,11.13884,13.92355,0,0,1.047619,0,0,0,0,0,0,-5.38552,0.91197,5.39523,-0.15269,1,1,1,1,0
36,686,1,1,1,1,0.000301,0.023528,0,8.338245,11.11766,13.897075,0,0,1.047619,0,0,0,0,0,0,-5.3951,0.83272,5.40481,-0.07433,1,1,1,1,0
36,687,1,1,1,1,0.000301,0.023528,0,8.419635,11.22618,14.032725,0,0,1.047619,0,0,0,0,0,0,-5.4025,1.01453,5.41234,-0.24556,1,1,1,1,0
36,688,1,1,1,1,0.000301,0.023528,0,8.178525,10.9047,13.630875,0,0,1.047619,0,0,0,0,0,0,-5.29441,0.7964,5.30375,-0.06691,1,1,1,1,0
37,36,1,1,1,0,0.000241,0.003617,0.202708,8.251965,11.00262,13.753275,0,0,0,0,0,0,0,0,0,-5.43419,0.01387,5.44122,-0.31936,1,1,1,1,0
37,388,1,1,1,0,0.000112,0.001525,0.090368,2.311245,3.08166,3.852075,0,0,0,0,0,0,0,0,0,1.23079,-0.64137,-1.23059,0.46084,1,1,1,1,0
37,388,1,1,1,0,0.000111,0.001526,0.095114,2.311245,3.08166,3.852075,0,0,0,0,0,0,0,0,0,1.23064,-0.64512,-1.23044,0.45496,1,1,1,1,0
37,926,1,1,1,1,0.000107,0.0176,0,2.49825,3.331,4.16375,0,0,1.047619,0,0,0,0,0,0,1.49858,0.61381,0,0,1,1,1,1,0
37,928,1,1,1,1,0.000082,0.017533,0,2.573775,3.4317,4.289625,0,0,1.047619,0,0,0,0,0,0,1.47407,0.65886,0,0,1,1,1,1,0
38,39,1,1,1,0,0.004141,0.021017,0.020353,2.558175,3.4109,4.263625,0,0,0,0,0,0,0,0,0,1.67161,-0.2055,-1.65996,0.22385,1,1,1,1,0
38,693,1,1,1,1,0.000699,0.048036,0,3.28881,4.38508,5.48135,0,0,1.052174,0,0,0,0,0,0,-2.1792,0.19839,2.18289,0.05501,1,1,1,1,0
39,1093,1,1,1,1,0.001485,0.115747,0,1.5,2,2.5,0,0,0.9875,0,0,0,0,0,0,0.6551,0.2954,0,0,1,1,1,1,0
39,1096,1,1,1,1,0.001595,0.121915,0,1.5,2,2.5,0,0,0.985,0,0,0,0,0,0,0.73897,0.33361,0,0,1,1,1,1,0
40,39,1,1,1,0,0.003604,0.018745,0.017711,1.5,2,2.5,0,0,0,0,0,0,0,0,0,0.46386,0.05439,-0.46307,-0.08582,1,1,1,1,0
40,41,1,1,1,0,0.008034,0.03782,0.036698,2.799495,3.73266,4.665825,0,0,0,0,0,0,0,0,0,1.86168,-0.25693,-1.83361,0.31549,1,1,1,1,0
40,695,1,1,1,1,0.000689,0.049679,0,1.666755,2.22234,2.777925,0,0,1.052174,0,0,0,0,0,0,-1.10154,0.05258,1.10246,0.0139,1,1,1,1,0
40,696,1,1,1,1,0.001531,0.086144,0,1.658355,2.21114,2.763925,0,0,0.921905,0,0,0,0,0,0,-1.08808,0.12551,1.08964,-0.03821,1,1,1,1,0
41,274,1,1,1,0,0.00059,0.004896,0.007292,1.96188,2.61584,3.2698,0,0,0,0,0,0,0,0,0,1.25862,0.35494,-1.2576,-0.36104,1,1,1,1,0
41,274,1,1,1,0,0.00059,0.004896,0.004903,1.96188,2.61584,3.2698,0,0,0,0,0,0,0,0,0,1.25861,0.35738,-1.2576,-0.35873,1,1,1,1,0
41,365,1,1,1,0,0.008028,0.043709,0.043653,1.5,2,2.5,0,0,0,0,0,0,0,0,0,1.11833,-0.23047,-1.10799,0.1996,1,1,1,1,0
41,365,1,1,1,0,0.007589,0.043157,0.042598,1.5,2,2.5,0,0,0,0,0,0,0,0,0,1.13558,-0.22347,-1.12553,0.19558,1,1,1,1,0
41,1309,1,1,1,1,0.001481,0.0972,0,1.5,2,2.5,0,0,1.056957,0,0,0,0,0,0,0.4141,-0.04941,0,0,1,1,1,1,0
41,1312,1,1,1,1,0.001474,0.0969,0,1.5,2,2.5,0,0,1.056957,0,0,0,0,0,0,0.41409,-0.06085,0,0,1,1,1,1,0
42,43,1,1,1,0,0.020236,0.092944,0.085604,3.272385,4.36318,5.453975,0,0,0,0,0,0,0,0,0,-1.95885,0.41235,2.04372,-0.19131,1,1,1,1,0
42,418,1,1,1,0,0.002661,0.014143,0.008641,2.142645,2.85686,3.571075,0,0,0,0,0,0,0,0,0,1.09129,-0.37597,-1.08766,0.37837,1,1,1,1,0
42,1496,1,1,1,1,0.001493,0.096665,0,1.5,2,2.5,0,0,1.0875,0,0,0,0,0,0,0.39889,-0.01904,0,0,1,1,1,1,0
42,1499,1,1,1,1,0.001025,0.080775,0,1.5,2,2.5,0,0,1.042609,0,0,0,0,0,0,0.46865,-0.01735,0,0,1,1,1,1,0
43,694,1,1,1,1,0.000699,0.049893,0,3.219555,4.29274,5.365925,0,0,1.052174,0,0,0,0,0,0,-2.04367,0.19128,2.04694,0.04179,1,1,1,1,0
44,38,1,1,1,0,0.010052,0.040208,0.036321,1.5,2,2.5,0,0,0,0,0,0,0,0,0,-0.52971,0.08995,0.53268,-0.15103,1,1,1,1,0
44,40,1,1,1,0,0.00977,0.03908,0.03737,1.5,2,2.5,0,0,0,0,0,0,0,0,0,0.11295,-0.09342,-0.1128,0.01892,1,1,1,1,0
44,130,1,1,1,0,0.000931,0.003722,0.007942,1.5,2,2.5,0,0,0,0,0,0,0,0,0,0.00001,-0.016,-0.00001,0.00005,1,1,1,1,0
44,1553,1,1,1,1,0.00066,0.290491,0,1.5,2,2.5,0,0,1,0,0,0,0,0,0,0.41677,0.01947,0,0,1,1,1,1,0
45,46,1,1,1,0,0.000455,0.003124,0.015399,1.5,2,2.5,0,0,0,0,0,0,0,0,0,-0.32294,0.10356,0.32299,-0.13347,1,1,1,1,0
45,46,1,1,1,0,0.000448,0.00313,0.004819,1.5,2,2.5,0,0,0,0,0,0,0,0,0,-0.32272,0.11294,0.32277,-0.12204,1,1,1,1,0
45,209,1,1,1,0,0.004923,0.026664,0.022532,1.5,2,2.5,0,0,0,0,0,0,0,0,0,0.27848,-0.13322,-0.27803,0.09127,1,1,1,1,0
45,209,1,1,1,0,0.005081,0.028116,0.023496,1.5,2,2.5,0,0,0,0,0,0,0,0,0,0.26469,-0.1275,-0.26427,0.08353,1,1,1,1,0
45,823,1,1,1,1,0.000151,0.037845,0,1.5,2,2.5,0,0,0.956522,0,0,0,0,0,0,0.10518,0.01663,-0.10518,-0.01623,1,1,1,1,0
45,824,1,1,1,1,0.000208,0.037807,0,1.5,2,2.5,0,0,0.956522,0,0,0,0,0,0,-0.00221,0.00229,0.00221,-0.00229,1,1,1,1,0
45,825,1,1,1,1,0,0.037807,0,1.5,2,2.5,0,0,0.956522,0,0,0,0,0,0,-0.00024,0.01264,0,0,1,1,1,1,0
...
